[General]
network = Network
sim-time-limit = 200s

Network.nodeTx.gen.generationInterval=exponential(0.1)
Network.nodeTx.gen.packetByteSize = 12500
Network.queue1.serviceTime = 0
Network.queue2.serviceTime = 0
Network.queue1.bufferSize = 100
Network.queue2.bufferSize = 200000 
Network.nodeRx.traRx.bufferSize = 100
Network.nodeTx.traTx.bufferSize = 20000000
